<?xml version="1.0" encoding="UTF-8"?>

<!-- generated on 2024-09-25 11:47:16 by Eclipse SUMO netedit Version 1.20.0
<configuration xmlns:xsi="http://www.w3.org/2001/XMLSchema-instance" xsi:noNamespaceSchemaLocation="http://sumo.dlr.de/xsd/neteditConfiguration.xsd">

    <input>
        <sumocfg-file value="C:\Users\NG4A6\Desktop\test sumo\test21.sumocfg"/>
        <route-files value="C:\Users\NG4A6\Desktop\q1\‏‏all_rou3.rou.xml"/>
        <sumo-net-file value="C:\Users\NG4A6\Desktop\q1\project2_2_modified3.net.xml"/>
    </input>

    <output>
        <output-file value="C:\Users\NG4A6\Desktop\q1\project2_2_modified3.net.xml"/>
        <output.street-names value="true"/>
    </output>

    <processing>
        <geometry.min-radius.fix.railways value="false"/>
        <geometry.max-grade.fix value="false"/>
        <offset.disable-normalization value="true"/>
        <lefthand value="0"/>
    </processing>

    <junctions>
        <no-turnarounds value="true"/>
        <junctions.corner-detail value="5"/>
        <junctions.limit-turn-speed value="5.50"/>
        <rectangular-lane-cut value="0"/>
    </junctions>

    <pedestrian>
        <walkingareas value="0"/>
    </pedestrian>

</configuration>
-->

<net version="1.20" junctionCornerDetail="5" limitTurnSpeed="5.50" xmlns:xsi="http://www.w3.org/2001/XMLSchema-instance" xsi:noNamespaceSchemaLocation="http://sumo.dlr.de/xsd/net_file.xsd">

    <location netOffset="-674494.82,-2729326.08" convBoundary="-33.74,0.00,2693.10,1783.07" origBoundary="46.724566,24.668310,46.749728,24.683489" projParameter="+proj=utm +zone=38 +ellps=WGS84 +datum=WGS84 +units=m +no_defs"/>

    <type id="highway.primary" priority="12" numLanes="2" speed="27.78" oneway="0"/>
    <type id="highway.primary_link" priority="7" numLanes="1" speed="22.22" oneway="0"/>
    <type id="highway.residential" priority="3" numLanes="1" speed="13.89" oneway="0"/>
    <type id="highway.secondary" priority="11" numLanes="1" speed="27.78" oneway="0"/>
    <type id="highway.secondary_link" priority="6" numLanes="1" speed="22.22" oneway="0"/>
    <type id="highway.service" priority="1" numLanes="1" speed="5.56" oneway="0"/>
    <type id="highway.tertiary" priority="10" numLanes="1" speed="22.22" oneway="0"/>

    <edge id=":10561536064_0" function="internal">
        <lane id=":10561536064_0_0" index="0" speed="22.22" length="0.30" shape="964.38,1514.62 964.44,1514.31"/>
        <lane id=":10561536064_0_1" index="1" speed="22.22" length="0.30" shape="967.51,1515.25 967.57,1514.95"/>
        <lane id=":10561536064_0_2" index="2" speed="22.22" length="0.30" shape="970.65,1515.88 970.71,1515.59"/>
        <lane id=":10561536064_0_3" index="3" speed="22.22" length="0.30" shape="973.79,1516.52 973.84,1516.24"/>
    </edge>
    <edge id=":10561536074_0" function="internal">
        <lane id=":10561536074_0_0" index="0" speed="22.22" length="0.35" shape="955.95,1556.39 956.00,1556.16"/>
        <lane id=":10561536074_0_1" index="1" speed="22.22" length="0.35" shape="959.07,1557.10 959.14,1556.79"/>
        <lane id=":10561536074_0_2" index="2" speed="22.22" length="0.35" shape="962.19,1557.80 962.27,1557.43"/>
        <lane id=":10561536074_0_3" index="3" speed="22.22" length="0.35" shape="965.31,1558.51 965.41,1558.06"/>
    </edge>
    <edge id=":10904628078_0" function="internal">
        <lane id=":10904628078_0_0" index="0" speed="5.56" length="8.97" shape="1249.46,541.52 1247.01,541.38 1245.09,542.06 1243.71,543.55 1242.85,545.85"/>
    </edge>
    <edge id=":10904628078_1" function="internal">
        <lane id=":10904628078_1_0" index="0" speed="5.56" length="14.27" shape="1249.46,541.52 1235.51,538.51"/>
    </edge>
    <edge id=":10904628078_2" function="internal">
        <lane id=":10904628078_2_0" index="0" speed="3.65" length="4.67" shape="1249.46,541.52 1248.44,540.50 1248.21,539.64 1248.76,538.93 1250.09,538.39"/>
    </edge>
    <edge id=":10904628078_3" function="internal">
        <lane id=":10904628078_3_0" index="0" speed="5.56" length="14.18" shape="1236.23,535.39 1250.09,538.39"/>
    </edge>
    <edge id=":10904628078_4" function="internal">
        <lane id=":10904628078_4_0" index="0" speed="5.56" length="14.08" shape="1236.23,535.39 1239.82,536.78 1242.13,538.98 1243.13,542.01 1242.85,545.85"/>
    </edge>
    <edge id=":10904628078_5" function="internal">
        <lane id=":10904628078_5_0" index="0" speed="3.65" length="4.67" shape="1236.23,535.39 1237.22,536.44 1237.43,537.31 1236.86,538.00 1235.51,538.51"/>
    </edge>
    <edge id=":10904628078_6" function="internal">
        <lane id=":10904628078_6_0" index="0" speed="5.56" length="8.96" shape="1239.72,545.16 1239.90,542.72 1239.26,540.80 1237.80,539.39 1235.51,538.51"/>
    </edge>
    <edge id=":10904628078_7" function="internal">
        <lane id=":10904628078_7_0" index="0" speed="5.56" length="14.07" shape="1239.72,545.16 1241.07,541.56 1243.25,539.22 1246.25,538.17 1250.09,538.39"/>
    </edge>
    <edge id=":10904628078_8" function="internal">
        <lane id=":10904628078_8_0" index="0" speed="3.65" length="4.67" shape="1239.72,545.16 1240.76,544.16 1241.63,543.94 1242.32,544.51 1242.85,545.85"/>
    </edge>
    <edge id=":10904628081_0" function="internal">
        <lane id=":10904628081_0_0" index="0" speed="5.56" length="9.04" shape="1288.15,549.60 1285.68,549.43 1283.75,550.10 1282.36,551.59 1281.51,553.92"/>
    </edge>
    <edge id=":10904628081_1" function="internal">
        <lane id=":10904628081_1_0" index="0" speed="5.56" length="14.40" shape="1288.15,549.60 1274.06,546.61"/>
    </edge>
    <edge id=":10904628081_2" function="internal">
        <lane id=":10904628081_2_0" index="0" speed="3.65" length="4.67" shape="1288.15,549.60 1287.14,548.57 1286.92,547.70 1287.47,547.00 1288.81,546.47"/>
    </edge>
    <edge id=":10904628081_3" function="internal">
        <lane id=":10904628081_3_0" index="0" speed="5.56" length="14.40" shape="1274.72,543.48 1288.81,546.47"/>
    </edge>
    <edge id=":10904628081_4" function="internal">
        <lane id=":10904628081_4_0" index="0" speed="5.56" length="14.20" shape="1274.72,543.48 1278.38,544.82 1280.73,547.00 1281.77,550.04 1281.51,553.92"/>
    </edge>
    <edge id=":10904628081_5" function="internal">
        <lane id=":10904628081_5_0" index="0" speed="3.65" length="4.67" shape="1274.72,543.48 1275.73,544.51 1275.96,545.38 1275.40,546.08 1274.06,546.61"/>
    </edge>
    <edge id=":10904628081_6" function="internal">
        <lane id=":10904628081_6_0" index="0" speed="5.56" length="9.03" shape="1278.38,553.25 1278.54,550.78 1277.88,548.85 1276.39,547.46 1274.06,546.61"/>
    </edge>
    <edge id=":10904628081_7" function="internal">
        <lane id=":10904628081_7_0" index="0" speed="5.56" length="14.19" shape="1278.38,553.25 1279.72,549.60 1281.90,547.25 1284.93,546.21 1288.81,546.47"/>
    </edge>
    <edge id=":10904628081_8" function="internal">
        <lane id=":10904628081_8_0" index="0" speed="3.65" length="4.67" shape="1278.38,553.25 1279.41,552.25 1280.27,552.02 1280.97,552.58 1281.51,553.92"/>
    </edge>
    <edge id=":10904628086_0" function="internal">
        <lane id=":10904628086_0_0" index="0" speed="5.56" length="9.11" shape="1268.41,545.42 1265.94,545.26 1264.01,545.94 1262.60,547.45 1261.71,549.81"/>
    </edge>
    <edge id=":10904628086_1" function="internal">
        <lane id=":10904628086_1_0" index="0" speed="5.56" length="14.42" shape="1268.41,545.42 1254.29,542.50"/>
    </edge>
    <edge id=":10904628086_2" function="internal">
        <lane id=":10904628086_2_0" index="0" speed="3.65" length="4.67" shape="1268.41,545.42 1267.40,544.39 1267.18,543.52 1267.73,542.82 1269.07,542.29"/>
    </edge>
    <edge id=":10904628086_3" function="internal">
        <lane id=":10904628086_3_0" index="0" speed="5.56" length="14.45" shape="1254.93,539.36 1269.07,542.29"/>
    </edge>
    <edge id=":10904628086_4" function="internal">
        <lane id=":10904628086_4_0" index="0" speed="5.56" length="14.27" shape="1254.93,539.36 1258.62,540.68 1260.98,542.86 1262.01,545.90 1261.71,549.81"/>
    </edge>
    <edge id=":10904628086_5" function="internal">
        <lane id=":10904628086_5_0" index="0" speed="3.65" length="4.67" shape="1254.93,539.36 1255.94,540.39 1256.18,541.25 1255.63,541.95 1254.29,542.50"/>
    </edge>
    <edge id=":10904628086_6" function="internal">
        <lane id=":10904628086_6_0" index="0" speed="5.56" length="9.03" shape="1258.59,549.11 1258.78,546.64 1258.13,544.71 1256.63,543.33 1254.29,542.50"/>
    </edge>
    <edge id=":10904628086_7" function="internal">
        <lane id=":10904628086_7_0" index="0" speed="5.56" length="14.23" shape="1258.59,549.11 1259.97,545.45 1262.17,543.09 1265.21,542.04 1269.07,542.29"/>
    </edge>
    <edge id=":10904628086_8" function="internal">
        <lane id=":10904628086_8_0" index="0" speed="3.65" length="4.67" shape="1258.59,549.11 1259.63,548.12 1260.50,547.90 1261.19,548.46 1261.71,549.81"/>
    </edge>
    <edge id=":10904628091_0" function="internal">
        <lane id=":10904628091_0_0" index="0" speed="6.95" length="9.62" shape="1327.25,554.90 1329.99,555.16 1332.19,554.61 1333.86,553.25 1334.99,551.07"/>
    </edge>
    <edge id=":10904628091_1" function="internal">
        <lane id=":10904628091_1_0" index="0" speed="3.65" length="4.67" shape="1327.25,554.90 1328.25,555.94 1328.47,556.81 1327.90,557.50 1326.56,558.02"/>
    </edge>
    <edge id=":10904628091_2" function="internal">
        <lane id=":10904628091_2_0" index="0" speed="6.27" length="9.04" shape="1330.31,564.76 1330.79,562.28 1330.33,560.34 1328.91,558.91 1326.56,558.02"/>
    </edge>
    <edge id=":10904628091_3" function="internal">
        <lane id=":10904628091_3_0" index="0" speed="22.22" length="14.48" shape="1330.31,564.76 1334.99,551.07"/>
        <lane id=":10904628091_3_1" index="1" speed="22.22" length="14.48" shape="1333.33,565.81 1338.02,552.09"/>
    </edge>
    <edge id=":10904970919_0" function="internal">
        <lane id=":10904970919_0_0" index="0" speed="27.78" length="0.30" shape="1168.10,1378.23 1167.81,1378.17"/>
        <lane id=":10904970919_0_1" index="1" speed="27.78" length="0.30" shape="1168.75,1375.10 1168.45,1375.04"/>
        <lane id=":10904970919_0_2" index="2" speed="27.78" length="0.30" shape="1169.39,1371.96 1169.09,1371.90"/>
        <lane id=":10904970919_0_3" index="3" speed="27.78" length="0.30" shape="1170.03,1368.83 1169.74,1368.77"/>
    </edge>
    <edge id=":10904970925_0" function="internal">
        <lane id=":10904970925_0_0" index="0" speed="27.78" length="0.10" shape="1135.14,1371.48 1135.14,1371.48"/>
        <lane id=":10904970925_0_1" index="1" speed="27.78" length="0.10" shape="1135.78,1368.35 1135.78,1368.35"/>
        <lane id=":10904970925_0_2" index="2" speed="27.78" length="0.10" shape="1136.42,1365.21 1136.42,1365.21"/>
        <lane id=":10904970925_0_3" index="3" speed="27.78" length="0.10" shape="1137.06,1362.08 1137.06,1362.08"/>
    </edge>
    <edge id=":11552607018_0" function="internal">
        <lane id=":11552607018_0_0" index="0" speed="7.39" length="7.14" shape="1614.95,1520.66 1615.65,1519.48 1615.93,1517.95 1615.79,1516.06 1615.24,1513.80"/>
    </edge>
    <edge id=":11552607018_1" function="internal">
        <lane id=":11552607018_1_0" index="0" speed="20.84" length="7.30" shape="1614.95,1520.66 1619.56,1515.15"/>
        <lane id=":11552607018_1_1" index="1" speed="20.84" length="7.30" shape="1617.31,1522.81 1622.00,1517.22"/>
        <lane id=":11552607018_1_2" index="2" speed="20.84" length="7.30" shape="1619.67,1524.97 1624.44,1519.29"/>
    </edge>
    <edge id=":11552607019_0" function="internal">
        <lane id=":11552607019_0_0" index="0" speed="27.78" length="8.38" shape="1672.13,1451.51 1673.49,1449.43 1674.11,1447.80 1674.75,1446.18 1676.15,1444.14"/>
        <lane id=":11552607019_0_1" index="1" speed="27.78" length="8.38" shape="1674.61,1453.52 1675.96,1451.46 1676.58,1449.85 1677.20,1448.24 1678.59,1446.21"/>
        <lane id=":11552607019_0_2" index="2" speed="27.78" length="8.38" shape="1677.09,1455.54 1678.43,1453.50 1679.04,1451.89 1679.65,1450.29 1681.03,1448.28"/>
    </edge>
    <edge id=":11552607019_3" function="internal">
        <lane id=":11552607019_3_0" index="0" speed="25.00" length="8.42" shape="1669.87,1449.67 1671.49,1447.81 1672.90,1446.82 1674.36,1445.87 1676.15,1444.14"/>
    </edge>
    <edge id=":11552825913_0" function="internal">
        <lane id=":11552825913_0_0" index="0" speed="25.00" length="38.48" shape="1604.27,1501.50 1600.39,1497.74 1594.39,1491.94 1586.00,1485.15 1574.93,1478.46"/>
        <lane id=":11552825913_0_1" index="1" speed="25.00" length="38.48" shape="1604.27,1501.50 1600.66,1497.32 1595.24,1490.57 1587.36,1482.81 1576.37,1475.60"/>
        <lane id=":11552825913_0_2" index="2" speed="25.00" length="38.48" shape="1604.27,1501.50 1600.95,1496.91 1596.13,1489.23 1588.76,1480.49 1577.81,1472.74"/>
    </edge>
    <edge id=":11552825913_3" function="internal">
        <lane id=":11552825913_3_0" index="0" speed="27.78" length="38.00" shape="1606.75,1498.70 1597.61,1492.20 1591.35,1487.73 1584.83,1483.68 1574.93,1478.46"/>
        <lane id=":11552825913_3_1" index="1" speed="27.78" length="38.00" shape="1608.32,1495.90 1599.15,1489.38 1592.86,1484.89 1586.31,1480.84 1576.37,1475.60"/>
        <lane id=":11552825913_3_2" index="2" speed="27.78" length="38.00" shape="1609.90,1493.10 1600.69,1486.55 1594.37,1482.06 1587.79,1478.00 1577.81,1472.74"/>
        <lane id=":11552825913_3_3" index="3" speed="27.78" length="38.00" shape="1611.48,1490.30 1602.22,1483.73 1595.87,1479.23 1589.27,1475.16 1579.25,1469.88"/>
    </edge>
    <edge id=":11552825914_0" function="internal">
        <lane id=":11552825914_0_0" index="0" speed="25.00" length="29.40" shape="1593.77,1450.86 1602.75,1455.45 1610.21,1458.97 1616.13,1461.49 1620.48,1463.10"/>
    </edge>
    <edge id=":11552825914_1" function="internal">
        <lane id=":11552825914_1_0" index="0" speed="27.78" length="29.18" shape="1593.77,1450.86 1618.67,1466.86"/>
        <lane id=":11552825914_1_1" index="1" speed="27.78" length="29.18" shape="1592.27,1453.69 1616.94,1469.55"/>
        <lane id=":11552825914_1_2" index="2" speed="27.78" length="29.18" shape="1590.77,1456.51 1615.21,1472.24"/>
        <lane id=":11552825914_1_3" index="3" speed="27.78" length="29.18" shape="1589.27,1459.34 1613.48,1474.93"/>
        <lane id=":11552825914_1_4" index="4" speed="27.78" length="29.18" shape="1589.27,1459.34 1596.47,1463.96 1600.74,1468.09 1604.90,1472.41 1611.75,1477.62"/>
    </edge>
    <edge id=":11552825971_0" function="internal">
        <lane id=":11552825971_0_0" index="0" speed="22.22" length="0.30" shape="1234.85,678.80 1235.14,678.86"/>
    </edge>
    <edge id=":11552825973_0" function="internal">
        <lane id=":11552825973_0_0" index="0" speed="5.56" length="14.41" shape="1240.36,671.81 1226.27,668.84"/>
    </edge>
    <edge id=":11552825973_1" function="internal">
        <lane id=":11552825973_1_0" index="0" speed="5.56" length="14.24" shape="1240.36,671.81 1236.69,670.48 1234.34,668.29 1233.32,665.24 1233.62,661.35"/>
    </edge>
    <edge id=":11552825973_2" function="internal">
        <lane id=":11552825973_2_0" index="0" speed="3.65" length="4.67" shape="1240.36,671.81 1239.35,670.78 1239.13,669.92 1239.68,669.22 1241.02,668.68"/>
    </edge>
    <edge id=":11552825973_3" function="internal">
        <lane id=":11552825973_3_0" index="0" speed="5.56" length="9.03" shape="1236.74,662.04 1236.55,664.51 1237.20,666.44 1238.69,667.83 1241.02,668.68"/>
    </edge>
    <edge id=":11552825973_4" function="internal">
        <lane id=":11552825973_4_0" index="0" speed="5.56" length="14.21" shape="1236.74,662.04 1235.37,665.70 1233.17,668.05 1230.13,669.10 1226.27,668.84"/>
    </edge>
    <edge id=":11552825973_5" function="internal">
        <lane id=":11552825973_5_0" index="0" speed="3.65" length="4.67" shape="1236.74,662.04 1235.70,663.04 1234.83,663.26 1234.14,662.69 1233.62,661.35"/>
    </edge>
    <edge id=":11552825973_6" function="internal">
        <lane id=":11552825973_6_0" index="0" speed="5.56" length="9.09" shape="1226.93,665.71 1229.40,665.87 1231.33,665.20 1232.74,663.69 1233.62,661.35"/>
    </edge>
    <edge id=":11552825973_7" function="internal">
        <lane id=":11552825973_7_0" index="0" speed="5.56" length="14.40" shape="1226.93,665.71 1241.02,668.68"/>
    </edge>
    <edge id=":11552825973_8" function="internal">
        <lane id=":11552825973_8_0" index="0" speed="3.65" length="4.67" shape="1226.93,665.71 1227.94,666.74 1228.16,667.61 1227.61,668.31 1226.27,668.84"/>
    </edge>
    <edge id=":11552825977_0" function="internal">
        <lane id=":11552825977_0_0" index="0" speed="22.22" length="0.30" shape="1208.56,673.35 1208.86,673.41"/>
    </edge>
    <edge id=":11552826012_0" function="internal">
        <lane id=":11552826012_0_0" index="0" speed="5.56" length="14.40" shape="1261.23,676.20 1247.14,673.24"/>
    </edge>
    <edge id=":11552826012_1" function="internal">
        <lane id=":11552826012_1_0" index="0" speed="5.56" length="14.20" shape="1261.23,676.20 1257.58,674.87 1255.23,672.68 1254.18,669.65 1254.44,665.77"/>
    </edge>
    <edge id=":11552826012_2" function="internal">
        <lane id=":11552826012_2_0" index="0" speed="3.65" length="4.67" shape="1261.23,676.20 1260.22,675.17 1260.00,674.30 1260.55,673.60 1261.89,673.07"/>
    </edge>
    <edge id=":11552826012_3" function="internal">
        <lane id=":11552826012_3_0" index="0" speed="5.56" length="9.03" shape="1257.57,666.43 1257.41,668.90 1258.07,670.83 1259.57,672.22 1261.89,673.07"/>
    </edge>
    <edge id=":11552826012_4" function="internal">
        <lane id=":11552826012_4_0" index="0" speed="5.56" length="14.20" shape="1257.57,666.43 1256.24,670.09 1254.05,672.44 1251.02,673.49 1247.14,673.24"/>
    </edge>
    <edge id=":11552826012_5" function="internal">
        <lane id=":11552826012_5_0" index="0" speed="3.65" length="4.67" shape="1257.57,666.43 1256.54,667.44 1255.68,667.66 1254.98,667.11 1254.44,665.77"/>
    </edge>
    <edge id=":11552826012_6" function="internal">
        <lane id=":11552826012_6_0" index="0" speed="5.56" length="9.04" shape="1247.80,670.11 1250.27,670.27 1252.20,669.60 1253.59,668.10 1254.44,665.77"/>
    </edge>
    <edge id=":11552826012_7" function="internal">
        <lane id=":11552826012_7_0" index="0" speed="5.56" length="14.40" shape="1247.80,670.11 1261.89,673.07"/>
    </edge>
    <edge id=":11552826012_8" function="internal">
        <lane id=":11552826012_8_0" index="0" speed="3.65" length="4.67" shape="1247.80,670.11 1248.81,671.14 1249.04,672.00 1248.48,672.70 1247.14,673.24"/>
    </edge>
    <edge id=":11552826013_0" function="internal">
        <lane id=":11552826013_0_0" index="0" speed="5.56" length="14.40" shape="1221.88,667.91 1207.80,664.93"/>
    </edge>
    <edge id=":11552826013_1" function="internal">
        <lane id=":11552826013_1_0" index="0" speed="5.56" length="14.22" shape="1221.88,667.91 1218.22,666.57 1215.88,664.38 1214.85,661.34 1215.13,657.45"/>
    </edge>
    <edge id=":11552826013_2" function="internal">
        <lane id=":11552826013_2_0" index="0" speed="3.65" length="4.67" shape="1221.88,667.91 1220.88,666.88 1220.65,666.01 1221.21,665.32 1222.55,664.78"/>
    </edge>
    <edge id=":11552826013_3" function="internal">
        <lane id=":11552826013_3_0" index="0" speed="5.56" length="9.03" shape="1218.26,658.14 1218.08,660.61 1218.73,662.54 1220.22,663.93 1222.55,664.78"/>
    </edge>
    <edge id=":11552826013_4" function="internal">
        <lane id=":11552826013_4_0" index="0" speed="5.56" length="14.20" shape="1218.26,658.14 1216.90,661.79 1214.70,664.14 1211.67,665.19 1207.80,664.93"/>
    </edge>
    <edge id=":11552826013_5" function="internal">
        <lane id=":11552826013_5_0" index="0" speed="3.65" length="4.67" shape="1218.26,658.14 1217.22,659.14 1216.35,659.36 1215.66,658.80 1215.13,657.45"/>
    </edge>
    <edge id=":11552826013_6" function="internal">
        <lane id=":11552826013_6_0" index="0" speed="5.56" length="9.07" shape="1208.46,661.80 1210.93,661.96 1212.86,661.29 1214.26,659.79 1215.13,657.45"/>
    </edge>
    <edge id=":11552826013_7" function="internal">
        <lane id=":11552826013_7_0" index="0" speed="5.56" length="14.40" shape="1208.46,661.80 1222.55,664.78"/>
    </edge>
    <edge id=":11552826013_8" function="internal">
        <lane id=":11552826013_8_0" index="0" speed="3.65" length="4.67" shape="1208.46,661.80 1209.47,662.83 1209.69,663.70 1209.14,664.40 1207.80,664.93"/>
    </edge>
    <edge id=":11552826022_0" function="internal">
        <lane id=":11552826022_0_0" index="0" speed="5.56" length="9.05" shape="1307.12,553.70 1304.65,553.51 1302.72,554.16 1301.31,555.65 1300.44,557.97"/>
    </edge>
    <edge id=":11552826022_1" function="internal">
        <lane id=":11552826022_1_0" index="0" speed="5.56" length="14.42" shape="1307.12,553.70 1293.04,550.64"/>
    </edge>
    <edge id=":11552826022_2" function="internal">
        <lane id=":11552826022_2_0" index="0" speed="3.65" length="4.67" shape="1307.12,553.70 1306.13,552.65 1305.91,551.79 1306.47,551.09 1307.82,550.57"/>
    </edge>
    <edge id=":11552826022_3" function="internal">
        <lane id=":11552826022_3_0" index="0" speed="5.56" length="14.45" shape="1293.70,547.50 1307.82,550.57"/>
    </edge>
    <edge id=":11552826022_4" function="internal">
        <lane id=":11552826022_4_0" index="0" speed="5.56" length="14.23" shape="1293.70,547.50 1297.37,548.85 1299.71,551.04 1300.73,554.08 1300.44,557.97"/>
    </edge>
    <edge id=":11552826022_5" function="internal">
        <lane id=":11552826022_5_0" index="0" speed="3.65" length="4.67" shape="1293.70,547.50 1294.71,548.54 1294.93,549.40 1294.38,550.10 1293.04,550.64"/>
    </edge>
    <edge id=":11552826022_6" function="internal">
        <lane id=":11552826022_6_0" index="0" speed="5.56" length="9.03" shape="1297.31,557.28 1297.50,554.81 1296.85,552.88 1295.36,551.49 1293.04,550.64"/>
    </edge>
    <edge id=":11552826022_7" function="internal">
        <lane id=":11552826022_7_0" index="0" speed="5.56" length="14.22" shape="1297.31,557.28 1298.69,553.63 1300.90,551.29 1303.94,550.27 1307.82,550.57"/>
    </edge>
    <edge id=":11552826022_8" function="internal">
        <lane id=":11552826022_8_0" index="0" speed="3.65" length="4.67" shape="1297.31,557.28 1298.35,556.28 1299.22,556.07 1299.92,556.63 1300.44,557.97"/>
    </edge>
    <edge id=":11552826036_0" function="internal">
        <lane id=":11552826036_0_0" index="0" speed="5.56" length="0.31" shape="1218.52,549.70 1218.45,550.00"/>
    </edge>
    <edge id=":11552826036_1" function="internal">
        <lane id=":11552826036_1_0" index="0" speed="3.65" length="4.67" shape="1218.52,549.70 1217.49,550.71 1216.62,550.94 1215.92,550.38 1215.38,549.05"/>
    </edge>
    <edge id=":11552826036_2" function="internal">
        <lane id=":11552826036_2_0" index="0" speed="5.56" length="0.29" shape="1215.32,549.33 1215.38,549.05"/>
    </edge>
    <edge id=":11552826036_3" function="internal">
        <lane id=":11552826036_3_0" index="0" speed="3.65" length="4.67" shape="1215.32,549.33 1216.36,548.33 1217.22,548.10 1217.92,548.66 1218.45,550.00"/>
    </edge>
    <edge id=":11552830319_0" function="internal">
        <lane id=":11552830319_0_0" index="0" speed="22.22" length="0.27" shape="1310.28,717.91 1310.04,717.66"/>
        <lane id=":11552830319_0_1" index="1" speed="22.22" length="0.27" shape="1312.53,715.64 1312.40,715.50"/>
    </edge>
    <edge id=":11552830322_0" function="internal">
        <lane id=":11552830322_0_0" index="0" speed="22.22" length="0.24" shape="1343.91,756.22 1343.72,755.99"/>
        <lane id=":11552830322_0_1" index="1" speed="22.22" length="0.24" shape="1346.29,754.08 1346.17,753.94"/>
    </edge>
    <edge id=":11552857863_0" function="internal">
        <lane id=":11552857863_0_0" index="0" speed="16.67" length="0.41" shape="2342.69,597.36 2343.23,597.42"/>
        <lane id=":11552857863_0_1" index="1" speed="16.67" length="0.41" shape="2342.44,600.55 2342.84,600.59"/>
        <lane id=":11552857863_0_2" index="2" speed="16.67" length="0.41" shape="2342.18,603.74 2342.46,603.77"/>
    </edge>
    <edge id=":11552871826_0" function="internal">
        <lane id=":11552871826_0_0" index="0" speed="22.22" length="0.31" shape="1698.42,1451.40 1698.35,1451.46 1698.30,1451.49 1698.24,1451.52 1698.17,1451.58"/>
        <lane id=":11552871826_0_1" index="1" speed="22.22" length="0.31" shape="1695.95,1449.37 1695.88,1449.43 1695.82,1449.46 1695.76,1449.49 1695.69,1449.55"/>
        <lane id=":11552871826_0_2" index="2" speed="22.22" length="0.31" shape="1693.47,1447.34 1693.41,1447.40 1693.35,1447.43 1693.29,1447.46 1693.22,1447.53"/>
    </edge>
    <edge id=":11552894291_0" function="internal">
        <lane id=":11552894291_0_0" index="0" speed="6.75" length="9.36" shape="1978.38,736.80 1975.76,736.62 1973.69,737.26 1972.16,738.71 1971.19,740.97"/>
    </edge>
    <edge id=":11552894291_1" function="internal">
        <lane id=":11552894291_1_0" index="0" speed="7.89" length="14.44" shape="1978.38,736.80 1974.61,735.47 1972.26,733.26 1971.32,730.17 1971.79,726.20"/>
    </edge>
    <edge id=":11552894291_2" function="internal">
        <lane id=":11552894291_2_0" index="0" speed="3.65" length="4.67" shape="1978.38,736.80 1977.36,735.78 1977.12,734.91 1977.67,734.21 1979.00,733.66"/>
    </edge>
    <edge id=":11552894291_3" function="internal">
        <lane id=":11552894291_3_0" index="0" speed="6.37" length="9.04" shape="1974.88,727.03 1974.58,729.51 1975.17,731.44 1976.65,732.83 1979.00,733.66"/>
    </edge>
    <edge id=":11552894291_4" function="internal">
        <lane id=":11552894291_4_0" index="0" speed="13.89" length="14.42" shape="1974.88,727.03 1971.19,740.97"/>
    </edge>
    <edge id=":11552894291_5" function="internal">
        <lane id=":11552894291_5_0" index="0" speed="13.89" length="14.44" shape="1968.09,740.16 1971.79,726.20"/>
    </edge>
    <edge id=":11552894291_6" function="internal">
        <lane id=":11552894291_6_0" index="0" speed="8.21" length="3.99" shape="1968.09,740.16 1969.59,736.66 1969.72,736.53"/>
    </edge>
    <edge id=":11552894291_7" function="internal">
        <lane id=":11552894291_7_0" index="0" speed="8.21" length="10.31" shape="1969.72,736.53 1971.90,734.41 1975.04,733.41 1979.00,733.66"/>
    </edge>
    <edge id=":11552894297_0" function="internal">
        <lane id=":11552894297_0_0" index="0" speed="3.65" length="4.67" shape="1992.71,707.75 1993.80,706.80 1994.67,706.63 1995.34,707.22 1995.79,708.59"/>
    </edge>
    <edge id=":11552894306_0" function="internal">
        <lane id=":11552894306_0_0" index="0" speed="13.89" length="0.31" shape="1737.93,841.62 1737.69,841.83"/>
    </edge>
    <edge id=":11552894306_1" function="internal">
        <lane id=":11552894306_1_0" index="0" speed="13.89" length="0.27" shape="1735.57,839.44 1735.77,839.26"/>
    </edge>
    <edge id=":11557821030_0" function="internal">
        <lane id=":11557821030_0_0" index="0" speed="16.67" length="0.30" shape="1148.10,385.70 1147.81,385.64"/>
        <lane id=":11557821030_0_1" index="1" speed="16.67" length="0.30" shape="1148.76,382.57 1148.46,382.51"/>
        <lane id=":11557821030_0_2" index="2" speed="16.67" length="0.30" shape="1149.41,379.44 1149.12,379.38"/>
    </edge>
    <edge id=":11557821042_0" function="internal">
        <lane id=":11557821042_0_0" index="0" speed="13.89" length="0.10" shape="388.83,770.50 388.83,770.50"/>
    </edge>
    <edge id=":11557821042_1" function="internal">
        <lane id=":11557821042_1_0" index="0" speed="13.89" length="0.10" shape="385.69,769.86 385.69,769.86"/>
    </edge>
    <edge id=":11557821044_0" function="internal">
        <lane id=":11557821044_0_0" index="0" speed="13.89" length="0.30" shape="424.06,750.52 423.77,750.45"/>
    </edge>
    <edge id=":11557821044_1" function="internal">
        <lane id=":11557821044_1_0" index="0" speed="13.89" length="0.30" shape="424.45,747.32 424.75,747.39"/>
    </edge>
    <edge id=":11557821045_0" function="internal">
        <lane id=":11557821045_0_0" index="0" speed="13.89" length="0.10" shape="411.53,815.26 411.53,815.26"/>
    </edge>
    <edge id=":11557821045_1" function="internal">
        <lane id=":11557821045_1_0" index="0" speed="13.89" length="0.10" shape="412.17,812.12 412.17,812.12"/>
    </edge>
    <edge id=":11557821046_0" function="internal">
        <lane id=":11557821046_0_0" index="0" speed="13.89" length="0.30" shape="443.28,754.72 442.98,754.65"/>
    </edge>
    <edge id=":11557821046_1" function="internal">
        <lane id=":11557821046_1_0" index="0" speed="13.89" length="0.30" shape="443.67,751.52 443.96,751.59"/>
    </edge>
    <edge id=":11557821047_0" function="internal">
        <lane id=":11557821047_0_0" index="0" speed="13.89" length="0.30" shape="431.04,819.23 430.74,819.17"/>
    </edge>
    <edge id=":11557821047_1" function="internal">
        <lane id=":11557821047_1_0" index="0" speed="13.89" length="0.30" shape="431.38,816.03 431.68,816.09"/>
    </edge>
    <edge id=":11557821054_0" function="internal">
        <lane id=":11557821054_0_0" index="0" speed="6.08" length="7.70" shape="491.30,626.69 490.56,628.66 489.37,629.93 487.73,630.50 485.63,630.37"/>
    </edge>
    <edge id=":11557821054_1" function="internal">