<?xml version="1.0" encoding="UTF-8"?>

<!-- generated on 2024-09-25 11:51:00 by Eclipse SUMO netedit Version 1.20.0
-->

<routes xmlns:xsi="http://www.w3.org/2001/XMLSchema-instance" xsi:noNamespaceSchemaLocation="http://sumo.dlr.de/xsd/routes_file.xsd">
    <!-- Vehicles, persons and containers (sorted by depart) -->
    <vehicle id="0" depart="0.00">
        <route edges="40558374#7 -40557984#4 -40557984#3 -40557984#2 -40558359#7 -1243560589#1"/>
    </vehicle>
    <flow id="f_0" begin="0.00" from="38120833#0" to="1137278800#4" end="3600.00" vehsPerHour="300"/>
    <flow id="f_1" begin="0.00" from="38120833#0" to="23596686#3" end="3600.00" vehsPerHour="300"/>
    <flow id="f_10" begin="0.00" departLane="1" departPos="26.29" from="593946310#7" to="569825005#3" end="3600.00" vehsPerHour="1200"/>
    <flow id="f_11" begin="0.00" from="40589033#0" to="280577033#30-AddedOnRampEdge" end="3600.00" vehsPerHour="600"/>
    <flow id="f_12" begin="0.00" from="40589033#0" to="280577026#27-AddedOffRampEdge" end="3600.00" vehsPerHour="300"/>
    <flow id="f_13" begin="0.00" from="280577033#1-AddedOnRampEdge" to="569825005#3" via="38120834#20" end="3600.00" vehsPerHour="300"/>
    <flow id="f_14" begin="0.00" from="38120834#0" to="280577033#30-AddedOnRampEdge" via="E20" end="3600.00" vehsPerHour="300"/>
    <flow id="f_15" begin="0.00" from="38120834#0" to="569825005#3" via="38120834#9 38120834#21 593946310#14" end="3600.00" vehsPerHour="600"/>
    <flow id="f_16" begin="0.00" from="E22" to="280577033#30-AddedOnRampEdge" end="3600.00" vehsPerHour="300"/>
    <flow id="f_17" begin="0.00" from="E3" to="E0" end="3600.00" vehsPerHour="600"/>
    <flow id="f_18" begin="0.00" from="40589033#0" to="23596686#3" end="3600.00" vehsPerHour="300"/>
    <flow id="f_19" begin="0.00" from="280577033#1-AddedOnRampEdge" to="569825008#7" end="3600.00" vehsPerHour="300"/>
    <flow id="f_2" begin="0.00" from="38120833#0" to="708121455#0-AddedOnRampEdge" end="3600.00" vehsPerHour="300"/>
    <flow id="f_20" begin="0.00" from="1145069554#1" to="1137278800#4" end="3600.00" vehsPerHour="300"/>
    <flow id="f_21" begin="0.00" from="E1" to="1137278800#3" end="3600.00" vehsPerHour="300"/>
    <flow id="f_22" begin="0.00" from="1145069554#1" to="569629983#3" end="3600.00" vehsPerHour="300"/>
    <flow id="f_23" begin="0.00" from="1145069554#1" to="1137278800#4" end="3600.00" vehsPerHour="300"/>
    <flow id="f_24" begin="0.00" from="1145069554#1" to="569825008#7" end="3600.00" vehsPerHour="300"/>
    <flow id="f_25" begin="0.00" from="1145069554#1" to="1137278800#4" end="3600.00" vehsPerHour="600"/>
    <flow id="f_26" begin="0.00" from="1145069554#1" to="23596686#3" via="1137278811#7 1137278796#3" end="3600.00" vehsPerHour="600"/>
    <flow id="f_27" begin="0.00" from="1145069554#1" to="23596686#3" via="552654782#5" end="3600.00" vehsPerHour="300"/>
    <flow id="f_28" begin="0.00" from="1145069554#1" to="23596686#3" via="1137278811#6 1137278796#4" end="3600.00" vehsPerHour="300"/>
    <flow id="f_29" begin="0.00" from="1145069554#1" to="23596686#3" end="3600.00" vehsPerHour="300"/>
    <flow id="f_3" begin="0.00" from="38120833#1" to="E0" end="3600.00" vehsPerHour="300"/>
    <flow id="f_30" begin="0.00" from="1137278811#7" to="23596686#3" end="3600.00" vehsPerHour="300"/>
    <flow id="f_31" begin="0.00" from="569825311#1" to="23596686#3" end="3600.00" vehsPerHour="300"/>
    <flow id="f_32" begin="0.00" from="569825311#0" to="569629983#3" end="3600.00" vehsPerHour="300"/>
    <flow id="f_33" begin="0.00" from="569825311#0" to="1137278800#4" end="3600.00" vehsPerHour="300"/>
    <flow id="f_34" begin="0.00" from="569825311#0" to="40589043#22" end="3600.00" vehsPerHour="300"/>
    <flow id="f_35" begin="0.00" from="569825311#0" to="569825008#7" end="3600.00" vehsPerHour="300"/>
    <flow id="f_36" begin="0.00" from="E12" to="280577026#27-AddedOffRampEdge" end="3600.00" vehsPerHour="300"/>
    <flow id="f_37" begin="0.00" from="E12" to="40589043#22" end="3600.00" vehsPerHour="300"/>
    <flow id="f_38" begin="0.00" from="E12" to="23596686#3" end="3600.00" vehsPerHour="300"/>
    <flow id="f_39" begin="0.00" from="E3" to="280577026#27-AddedOffRampEdge" end="3600.00" vehsPerHour="300"/>
    <flow id="f_4" begin="0.00" from="38120833#1" to="40589043#22" end="3600.00" vehsPerHour="300"/>
    <flow id="f_40" begin="0.00" from="E3" to="593945816#25" end="3600.00" vehsPerHour="300"/>
    <flow id="f_41" begin="0.00" from="E3" to="E0" end="3600.00" vehsPerHour="600"/>
    <flow id="f_42" begin="0.00" from="E1" to="569825008#7" end="3600.00" vehsPerHour="600"/>
    <flow id="f_5" begin="0.00" from="1137278795#0" to="708121455#0-AddedOnRampEdge" end="3600.00" vehsPerHour="300"/>
    <flow id="f_6" begin="0.00" from="1137278795#0" to="593945816#25" end="3600.00" vehsPerHour="300"/>
    <flow id="f_7" begin="0.00" from="1137278795#0" to="280577026#27-AddedOffRampEdge" end="3600.00" vehsPerHour="300"/>
    <flow id="f_8" begin="0.00" from="1137278795#0" to="E0" end="3600.00" vehsPerHour="300"/>
    <flow id="f_9" begin="0.00" from="593946310#1" to="569825005#3" end="3600.00" vehsPerHour="600"/>
    <vehicle id="1" depart="1.00">
        <route edges="280577033#15 E20 E23 E19 280577026#12 280577026#13 280577026#14 280577026#15 280577026#16 280577026#17 280577026#18"/>
    </vehicle>
    <vehicle id="2" depart="2.00">
        <route edges="569825310#0 569825310#1 569825310#2 569825310#3 569825310#4 569825310#5 569825310#6 569825310#7 569825112#2-AddedOnRampEdge E24 569825112#14 1137278811#0 1137278811#1 1137278811#2 1137278811#3 1137278811#4 1137278811#5 1137278811#6 1137278811#7 1137278811#8 552654931"/>
    </vehicle>
    <vehicle id="3" depart="3.00">
        <route edges="E1 1137278811#0 1137278811#1 1137278811#2 1137278811#3 1137278811#4 1137278811#5 1137278811#6 1137278811#7 1137278811#8 E2 E5 1137278796#0 1137278796#1 1137278796#2 1137278796#3"/>
    </vehicle>
    <vehicle id="4" depart="4.00">
        <route edges="1243560590#3 -40558334#0 -40557985#1 -40558388#5 -40558388#4 -40558388#3 -40558388#2 -40558388#1 40557982#1 1301753307 -1243560595#0"/>
    </vehicle>
    <vehicle id="5" depart="5.00">
        <route edges="280577026#18 280577026#19 280577026#20 280577026#20-AddedOffRampEdge 552634244 38120834#8 38120834#9 40589043#17 40589043#18 40589043#19 40589043#20 40589043#21"/>
    </vehicle>
    <vehicle id="6" depart="6.00">
        <route edges="-1243560590#2 -1243560590#1 40558388#7 40558388#8 40558388#9 40558388#10 -40558388#10"/>
    </vehicle>
    <vehicle id="7" depart="7.00">
        <route edges="40558388#1 40558388#2 40558388#3 -40557987#7 -40557987#6 -40557987#5 -40557987#4 40558359#5 40558359#6 40558359#7 40558359#8 40558359#9 40558359#10 40558359#11 40557990#2"/>
    </vehicle>
    <vehicle id="8" depart="8.00">
        <route edges="280577026#18 280577026#19 280577026#20 280577026#20-AddedOffRampEdge 552634244"/>
    </vehicle>
    <vehicle id="9" depart="9.00">
        <route edges="40589033#12 40589033#13 40589033#14 40589033#15 E18 40587788#3 40587788#4 40587788#5 40587788#6 40587788#7 40587788#8 40587788#9 40587788#10 E35 E34 40587781#0 -1173605808#8 -1173605808#7 -1173605808#6 -1173605808#5"/>
    </vehicle>
    <vehicle id="10" depart="10.00">
        <route edges="40589033#1 40589033#2 40589033#3 40589033#4 40589033#9 40589033#10 40589033#11 40589033#12 40589033#13 40589033#14 40589033#15 E18 40587788#3 40587788#4 40587788#5"/>
    </vehicle>
    <vehicle id="11" depart="11.00">
        <route edges="38120834#19 38120834#20 38120834#21 38120834#22 38120834#23 552636259#0 593946310#7 593946310#14 569825112#2-AddedOnRampEdge E24 569825112#14 1137278811#0 1137278811#1 1137278811#2 1137278811#3 1137278811#4 1137278811#5 1137278811#6"/>
    </vehicle>
    <vehicle id="12" depart="12.00">
        <route edges="E23 E19 280577026#12 280577026#13 280577026#14 280577026#15 280577026#16 280577026#17 280577026#18 280577026#19 280577026#20 280577026#20-AddedOffRampEdge 552634244 38120834#8 38120834#9 38120834#15 38120834#16 38120834#17 38120834#18"/>
    </vehicle>
    <vehicle id="13" depart="13.00">
        <route edges="-40557989#5 -40558370#11 -40557990#3 -40557990#2"/>
    </vehicle>
    <vehicle id="14" depart="14.00">
        <route edges="593945816#17 593945816#18 E16 280577033#8 280577033#9 280577033#10 280577033#11 280577033#12 280577033#13 280577033#14 280577033#15 E20 E23 E19 280577026#12 280577026#13 280577026#14 280577026#15 280577026#16 280577026#17 280577026#18 280577026#19 280577026#20 280577026#20-AddedOffRampEdge 552634244 38120834#8 38120834#9 38120834#15 38120834#16 38120834#17 38120834#18 38120834#19 38120834#20 38120834#21 38120834#22 38120834#23 552636259#0"/>
    </vehicle>
    <vehicle id="16" depart="16.00">
        <route edges="40589043#8 40589043#9 40589043#10 40589043#11 40589043#12 38120834#15 38120834#16 38120834#17 38120834#18 38120834#19 38120834#20 38120834#21 38120834#22 38120834#23 552636259#0 E37"/>
    </vehicle>
    <vehicle id="18" depart="18.00">
        <route edges="569825477#9 552654784 1039833026#1 1039833026#2 1039833026#3 1039833026#4 1039833026#5 1039833026#6 1039833026#7 1039833026#8 1039833026#9 1039833026#10 1039833026#11 1039833026#12 1039833026#13 1137278808 569825310#1 569825310#2 569825310#3 569825310#4 569825310#5 569825310#6 569825310#7 552654782#1 552654782#2 552654782#3 552654782#4 552654782#5 552654782#6 552654782#7 552654782#8 552654782#9 552654782#10 552654782#11"/>
    </vehicle>
    <vehicle id="19" depart="19.00">
        <route edges="593945816#7 593945816#8 593945816#9 593945816#10 593945816#11 593945816#12 40589033#9 40589033#10 40589033#11 40589033#12 40589033#13 40589033#14 40589033#15 E18 280577033#25 280577033#26 280577033#27 40604161#2 40604161#3-AddedOnRampEdge 40604161#3 40604161#4 40604161#5 40604161#6 40604161#7"/>
    </vehicle>
    <vehicle id="20" depart="20.00">
        <route edges="569825008#1-AddedOnRampEdge 569825008#1 569825008#2 569825008#3 569825008#3-AddedOffRampEdge 569825008#4 40604161#2 40604161#3-AddedOnRampEdge 40604161#3 40604161#4 40604161#5 40604161#6 40604161#7 40604161#8 40604161#9 40604161#10 569825112#2-AddedOnRampEdge E24 569825112#14 1137278811#0 1137278811#1 1137278811#2 1137278811#3 1137278811#4 1137278811#5 1137278811#6 1137278811#7 1137278811#8 E2 E6 1039833026#1 1039833026#2 1039833026#3 1039833026#4 1039833026#5 1039833026#6"/>
    </vehicle>
    <vehicle id="21" depart="21.00">
        <route edges="280577026#2 280577026#3 280577033#25 280577033#26"/>
    </vehicle>
    <vehicle id="22" depart="22.00">
        <route edges="1137278796#0 1137278796#1 1137278796#2 1137278796#3 1137278796#4 1137278796#5 1137278796#6 593946310#7 593946310#14 569825008#1-AddedOnRampEdge 569825008#1 569825008#2 569825008#3 569825008#3-AddedOffRampEdge 1243054437 280577026#3 280577033#25 280577033#26 280577033#27 280577026#2"/>
    </vehicle>
    <vehicle id="23" depart="23.00">
        <route edges="1137278796#5 1137278796#6 E37 593945816#6 593945816#7 593945816#8 593945816#9 593945816#10 593945816#11 593945816#12 593945816#17-AddedOnRampEdge 593945816#17 593945816#18 E16 280577033#8 280577033#9 280577033#10 280577033#11 280577033#12 280577033#13 280577033#14 280577033#15"/>
    </vehicle>
    <vehicle id="24" depart="24.00">
        <route edges="552654782#2 552654782#3 552654782#4 552654782#5 552654782#6 552654782#7 552654782#8 552654782#9 552654782#10 552654782#11 552654782#12 552654782#13 552654782#14 593946310#7 593946310#14 569825008#1-AddedOnRampEdge 569825008#1 569825008#2 569825008#3 569825008#3-AddedOffRampEdge 1243054437 280577026#3 E19 280577026#12 280577026#13 280577026#14 280577026#15 280577026#16 280577026#17 280577026#18 280577026#19 280577026#20 280577026#20-AddedOffRampEdge 552634244 38120834#8"/>
    </vehicle>
    <vehicle id="25" depart="25.00">
        <route edges="38120834#9 40589033#9 40589033#10 40589033#11 40589033#12 40589033#13 40589033#14 40589033#15 552634872 280577026#12 280577026#13 280577026#14 280577026#15"/>
    </vehicle>
    <vehicle id="26" depart="26.00">
        <route edges="280577033#13 280577033#14 280577033#15 E20 E23 280577033#25 280577033#26 280577033#27 280577026#2 280577026#3 E17"/>
    </vehicle>
    <vehicle id="27" depart="27.00">
        <route edges="40558388#0 40557982#1 40557982#2 40557982#3 40557982#4 40557982#5 40557982#6 -40558370#1 40558370#1"/>
    </vehicle>
    <vehicle id="28" depart="28.00">
        <route edges="1243054436 40604161#3-AddedOnRampEdge 40604161#3 40604161#4 40604161#5 40604161#6 40604161#7 40604161#8 40604161#9 40604161#10 569825008#1-AddedOnRampEdge 569825008#1 569825008#2 569825008#3 569825008#3-AddedOffRampEdge 569825008#4"/>
    </vehicle>
    <vehicle id="29" depart="29.00">
        <route edges="1137278811#8 E2 E6 1039833026#1 1039833026#2 1039833026#3 1039833026#4 1039833026#5 1039833026#6 1039833026#7 1039833026#8 1039833026#9 1039833026#10 1039833026#11 1039833026#12 1039833026#13 1137278808 569825310#1 569825310#2 569825310#3 569825310#4 569825310#5 569825310#6 569825310#7 569825008#1-AddedOnRampEdge 569825008#1 569825008#2 569825008#3 569825008#3-AddedOffRampEdge 1243054437 280577026#3 40587788#3"/>
    </vehicle>
    <vehicle id="31" depart="31.00">
        <route edges="40604161#3 40604161#4 40604161#5 40604161#6 40604161#7 40604161#8 40604161#9 40604161#10 569825112#2-AddedOnRampEdge E24 569825112#14 1137278811#0 1137278811#1 1137278811#2 1137278811#3 1137278811#4 1137278811#5 1137278811#6 1137278811#7 1137278811#8 552654931 569629983#1-AddedOnRampEdge"/>
    </vehicle>
    <vehicle id="32" depart="32.00">
        <route edges="40589048#12 -40589048#12 -40589048#11 -40589048#10 -40589048#9 -40589048#7 -40589048#6 -40589048#5 40588917#0"/>
    </vehicle>
    <vehicle id="33" depart="33.00">
        <route edges="280577026#2 280577026#3 280577033#25 280577033#26 280577033#27 40604161#2 40604161#3-AddedOnRampEdge 40604161#3 40604161#4 40604161#5 40604161#6 40604161#7 40604161#8 40604161#9 40604161#10 569825112#2-AddedOnRampEdge E24 569825112#14 1137278811#0 1137278811#1 1137278811#2 1137278811#3 1137278811#4 1137278811#5 1137278811#6 1137278811#7 1137278811#8 E2 E6 1039833026#1 1039833026#2 1039833026#3"/>
    </vehicle>
    <vehicle id="34" depart="34.00">
        <route edges="-40588957#3 40588957#3 -40588947#6 -40588947#5 -40588947#4 -40588947#3 -40588904#3"/>
    </vehicle>
    <vehicle id="35" depart="35.00">
        <route edges="280577026#16 280577026#17 280577026#18 280577026#19 280577026#20 280577026#20-AddedOffRampEdge 552634244 38120834#8 38120834#9 40589033#9 40589033#10 40589033#11 40589033#12 40589033#13 40589033#14 40589033#15 E18"/>
    </vehicle>
    <vehicle id="37" depart="37.00">
        <route edges="552654782#7 552654782#8 552654782#9 552654782#10 552654782#11 552654782#12 552654782#13 552654782#14 593946310#7 593946310#14 569825008#1-AddedOnRampEdge 569825008#1 569825008#2 569825008#3 569825008#3-AddedOffRampEdge 1243054437 280577026#3 40587788#3 40587788#4 40587788#5 40587788#6 40587788#7"/>
    </vehicle>
    <vehicle id="38" depart="38.00">
        <route edges="569825310#3 569825310#4 569825310#5 569825310#6 569825310#7 569825008#1-AddedOnRampEdge 569825008#1 569825008#2 569825008#3 569825008#3-AddedOffRampEdge 1243054437 280577026#3 280577033#25 280577033#26"/>
    </vehicle>
    <vehicle id="39" depart="39.00">
        <route edges="-40588904#1 40588904#1 -40588906#6 40588888 -40588888"/>
    </vehicle>
    <vehicle id="40" depart="40.00">
        <route edges="40604161#3-AddedOnRampEdge 40604161#3 40604161#4 40604161#5 40604161#6 40604161#7 40604161#8 40604161#9 40604161#10 569825008#1-AddedOnRampEdge 569825008#1 569825008#2 569825008#3 569825008#3-AddedOffRampEdge 1243054437 280577026#3 E19 280577026#12 280577026#13 280577026#14 280577026#15 280577026#16 280577026#17 280577026#18 280577026#19 280577026#20 280577026#20-AddedOffRampEdge 280577026#21 E16 280577033#8 280577033#9 280577033#10 280577033#11"/>
    </vehicle>
    <vehicle id="41" depart="41.00">
        <route edges="40604161#9 40604161#10 552654782#1 552654782#2 552654782#3 552654782#4 552654782#5 552654782#6 552654782#7 552654782#8 552654782#9 552654782#10 552654782#11 552654782#12 552654782#13 552654782#14 593946310#7"/>
    </vehicle>
    <vehicle id="42" depart="42.00">
        <route edges="1173605808#8 40587781#1 40587779#3 40587779#4 E29 E32 E30 40587791#1 40587791#2 40587791#3 40587791#4 40587791#5 40587791#6 40587788#7 40587768#0 40587699#0 -40587699#0"/>
    </vehicle>
    <vehicle id="44" depart="44.00">
        <route edges="-40557989#4 40557989#4 40557989#5 -40558374#11 -40558374#10 -40558374#9 -40558374#8 -40558374#7 -40558374#6 -40558374#5 -40558374#4 -40557980#4"/>
    </vehicle>
    <vehicle id="45" depart="45.00">
        <route edges="-40557993#4 40557993#4 40558374#9 40558374#10 40558374#11"/>
    </vehicle>
    <vehicle id="49" depart="49.00">
        <route edges="E19 280577026#12 280577026#13 280577026#14 280577026#15 280577026#16 280577026#17 280577026#18 280577026#19 280577026#20 280577026#20-AddedOffRampEdge 552634244 38120834#8 38120834#9 40589033#9 40589033#10 40589033#11 40589033#12 40589033#13 40589033#14 40589033#15 E18 280577033#25 280577033#26 280577033#27 40604161#2 40604161#3-AddedOnRampEdge 40604161#3 40604161#4 40604161#5"/>
    </vehicle>
    <vehicle id="50" depart="50.00">
        <route edges="1039833026#11 1039833026#12 1039833026#13 1137278808 569825310#1 569825310#2 569825310#3 569825310#4 569825310#5 569825310#6 569825310#7 569825008#1-AddedOnRampEdge 569825008#1 569825008#2 569825008#3"/>
    </vehicle>
    <vehicle id="51" depart="51.00">
        <route edges="552655463 1137278796#0 1137278796#1 1137278796#2 1137278796#3 1137278796#4 1137278796#5 1137278796#6 593946310#7 593946310#14 569825008#1-AddedOnRampEdge 569825008#1 569825008#2 569825008#3 569825008#3-AddedOffRampEdge 1243054437 280577026#3 E17 40589043#3 40589043#4 40589043#5 40589043#6 40589043#7 40589043#8 40589043#9"/>
    </vehicle>
    <vehicle id="52" depart="52.00">
        <route edges="280577033#13 280577033#14 280577033#15 E20 E23 280577033#25 280577033#26 280577033#27 40604161#2 40604161#3-AddedOnRampEdge 40604161#3 40604161#4 40604161#5 40604161#6 40604161#7 40604161#8 40604161#9 40604161#10 552654782#1 552654782#2 552654782#3 552654782#4"/>
    </vehicle>
    <vehicle id="54" depart="54.00">
        <route edges="40589033#14 40589033#15 552634872 280577026#12 280577026#13 280577026#14 280577026#15 280577026#16 280577026#17 280577026#18 280577026#19 280577026#20 280577026#20-AddedOffRampEdge 280577026#21 E16 280577033#8 280577033#9 280577033#10 280577033#11 280577033#12 280577033#13 280577033#14 280577033#15 E20"/>
    </vehicle>
    <vehicle id="55" depart="55.00">
        <route edges="593946310#1 593946310#2 E37 593945816#6 593945816#7 593945816#8 593945816#9 593945816#10 593945816#11 593945816#12 593945816#17-AddedOnRampEdge 593945816#17 593945816#18 E16 280577033#8 280577033#9 280577033#10 280577033#11"/>
    </vehicle>
    <vehicle id="56" depart="56.00">
        <route edges="40557981#1 40557981#2 40557981#3 40557981#4 40558374#3 40558374#4 40558374#5 40558374#6 40558374#7 40558374#8 40558374#9 40558374#10 40558374#11 -40558374#11"/>
    </vehicle>
    <vehicle id="57" depart="57.00">
        <route edges="569825310#2 569825310#3 569825310#4 569825310#5 569825310#6 569825310#7 552654782#1 552654782#2 552654782#3 552654782#4 552654782#5 552654782#6 552654782#7 552654782#8 552654782#9 552654782#10 552654782#11 552654782#12 552654782#13 552654782#14 593946310#7 40587773#1 40587773#2 40587773#3 40587781#0 40587781#1 E25 552636259#0"/>
    </vehicle>
    <vehicle id="58" depart="58.00">
        <route edges="280577033#8 280577033#9 280577033#10 280577033#11 280577033#12 280577033#13 280577033#14 280577033#15 E20 E23 280577033#25 280577033#26 280577033#27 40604161#2 40604161#3-AddedOnRampEdge 40604161#3 40604161#4 40604161#5 40604161#6 40604161#7 40604161#8 40604161#9 40604161#10 552654782#1 552654782#2 552654782#3"/>
    </vehicle>
    <vehicle id="59" depart="59.00">
        <route edges="40558366#6 -40558366#6 -40558366#5 -40558366#4 -40558366#3"/>
    </vehicle>
    <vehicle id="60" depart="60.00">
        <route edges="569825310#6 569825310#7 569825008#1-AddedOnRampEdge 569825008#1 569825008#2 569825008#3 569825008#3-AddedOffRampEdge 1243054437 280577026#3 E17 40589043#3 40589043#4 40589043#5 40589043#6 40589043#7 40589043#8 40589043#9"/>
    </vehicle>
    <vehicle id="61" depart="61.00">
        <route edges="569825311#1 569825311#2 569825311#3 569825311#4 569825311#5 569825008#1-AddedOnRampEdge 569825008#1 569825008#2 569825008#3 569825008#3-AddedOffRampEdge 1243054437 280577026#3 E17 40589043#3 40589043#4 40589043#5 40589043#6 40589043#7"/>
    </vehicle>
    <vehicle id="62" depart="62.00">
        <route edges="1039833026#1 1039833026#2 1039833026#3 1039833026#4 1039833026#5 1039833026#6 1039833026#7 1039833026#8 1039833026#9 1039833026#10 1039833026#11 1039833026#12 1039833026#13 1137278808 569825310#1 569825310#2 569825310#3 569825310#4 569825310#5 569825310#6 569825310#7 569825008#1-AddedOnRampEdge 569825008#1 569825008#2 569825008#3 569825008#3-AddedOffRampEdge 1243054437 280577026#3 E17 40589043#3 40589043#4 40589043#5 40589043#6 40589043#7 40589043#8 40589043#9 40589043#10 40589043#11 40589043#12 38120834#15"/>
    </vehicle>
    <vehicle id="64" depart="64.00">
        <route edges="552654782#2 552654782#3 552654782#4 552654782#5 552654782#6 552654782#7 552654782#8 552654782#9 552654782#10 552654782#11 552654782#12 552654782#13 552654782#14 593946310#7 40587773#1 40587773#2 40587773#3 E33 E32 E30 40587791#1 40587791#2 40587791#3 40587791#4 40587791#5 40587791#6 40587791#7 40587791#8 40587791#9 40587791#10 E21 E17 40589043#3 40589043#4"/>
    </vehicle>
    <vehicle id="65" depart="65.00">
        <route edges="38120833#1 38120833#2 E10 E6 1039833026#1 1039833026#2 1039833026#3 1039833026#4 1039833026#5 1039833026#6 1039833026#7 1039833026#8 1039833026#9"/>
    </vehicle>
    <vehicle id="66" depart="66.00">
        <route edges="552654782#14 E37 593945816#6 593945816#7 593945816#8 593945816#9 593945816#10 593945816#11 593945816#12 593945816#17-AddedOnRampEdge 593945816#17 593945816#18 E13 593945816#25"/>
    </vehicle>
    <vehicle id="67" depart="67.00">
        <route edges="-40557987#7 -40557987#6 -40557987#5 -40557987#4 -40557987#3 40558366#5 40558366#6 40557978#0"/>
    </vehicle>
    <vehicle id="68" depart="68.00">
        <route edges="1137278795#0 1137278795#1 1137278795#2 E11 E6 1039833026#1 1039833026#2 1039833026#3 1039833026#4 1039833026#5 1039833026#6 1039833026#7 1039833026#8 1039833026#9 1039833026#10 1039833026#11 1039833026#12 1039833026#13 1137278808 569825310#1 569825310#2"/>
    </vehicle>
    <vehicle id="69" depart="69.00">
        <route edges="569825310#6 569825310#7 569825112#2-AddedOnRampEdge E24 569825112#14 1137278811#0"/>
    </vehicle>
    <vehicle id="70" depart="70.00">
        <route edges="40589033#9 40589033#10 40589033#11 40589033#12 40589033#13 40589033#14 40589033#15 E18 280577033#25 280577033#26 280577033#27 40604161#2"/>
    </vehicle>
    <vehicle id="71" depart="71.00">
        <route edges="280577033#13 280577033#14 280577033#15 E20 E23 280577033#25 280577033#26 280577033#27 40604161#2 40604161#3-AddedOnRampEdge 40604161#3 40604161#4 40604161#5 40604161#6 40604161#7 40604161#8 40604161#9 40604161#10 552654782#1 552654782#2 552654782#3 552654782#4 552654782#5 552654782#6 552654782#7 552654782#8 552654782#9 552654782#10 552654782#11 552654782#12 552654782#13 552654782#14 E37 593945816#6"/>
    </vehicle>
    <vehicle id="72" depart="72.00">
        <route edges="1243560595#0 -1243560595#0 40558388#0 40558388#1 40558388#2 40558388#3 40558388#4 40558388#5 40558388#6 40558388#7 40558388#8 -40558388#8"/>
    </vehicle>
    <vehicle id="73" depart="73.00">
        <route edges="40589043#9 40589043#10 40589043#11 40589043#12 40589033#9 40589033#10 40589033#11 40589033#12 40589033#13 40589033#14 40589033#15 E18 280577033#25 280577033#26 280577033#27 40604161#2 40604161#3-AddedOnRampEdge 40604161#3 40604161#4 40604161#5 40604161#6 40604161#7 40604161#8 40604161#9 40604161#10 569825008#1-AddedOnRampEdge 569825008#1 569825008#2 569825008#3 569825008#3-AddedOffRampEdge 569825008#4"/>
    </vehicle>
    <vehicle id="76" depart="76.00">
        <route edges="40589033#11 40589033#12 40589033#13 40589033#14 40589033#15 E18 280577033#25 280577033#26 280577033#27 280577026#2 280577026#3 E17 40589043#3 40589043#4"/>
    </vehicle>
    <vehicle id="78" depart="78.00">
        <route edges="38120834#19 38120834#20 38120834#21 38120834#22 38120834#23 552636259#0 593946310#7 593946310#14 569825008#1-AddedOnRampEdge 569825008#1 569825008#2 569825008#3 569825008#3-AddedOffRampEdge 569825008#4 40604161#2 40604161#3-AddedOnRampEdge 40604161#3 40604161#4 40604161#5 40604161#6 40604161#7 40604161#8 40604161#9"/>
    </vehicle>
    <vehicle id="79" depart="79.00">
        <route edges="-40587768#0 40587768#0 40587699#0 40587699#1 -40587699#1"/>
    </vehicle>
    <vehicle id="80" depart="80.00">
        <route edges="-40557984#2 40557984#2 40557984#3 -40558370#7 -40558370#6 -40558370#5 -40558370#4 -40558370#3 40557981#4 40558374#3"/>
    </vehicle>
    <vehicle id="81" depart="81.00">
        <route edges="-40587707 40587788#6 40587788#7 40587788#8 40587788#9 40587788#10 E35 40587792#0 593946310#14 569825008#1-AddedOnRampEdge 569825008#1 569825008#2 569825008#3"/>
    </vehicle>
    <vehicle id="84" depart="84.00">
        <route edges="-40558395#2 40558395#2 40557989#2 -40558359#12"/>
    </vehicle>
    <vehicle id="85" depart="85.00">
        <route edges="E19 280577026#12 280577026#13 280577026#14 280577026#15 280577026#16 280577026#17 280577026#18 280577026#19 280577026#20 280577026#20-AddedOffRampEdge 552634244 38120834#8 38120834#9 40589033#9 40589033#10 40589033#11 40589033#12 40589033#13 40589033#14 40589033#15 E18 280577033#25 280577033#26 280577033#27 40604161#2 40604161#3-AddedOnRampEdge 40604161#3 40604161#4 40604161#5"/>
    </vehicle>
    <vehicle id="88" depart="88.00">
        <route edges="1137278796#4 1137278796#5 1137278796#6 E37 593945816#6 593945816#7 593945816#8 593945816#9 593945816#10 593945816#11 593945816#12 40589033#9 40589033#10"/>
    </vehicle>
    <vehicle id="91" depart="91.00">
        <route edges="E6 1039833026#1 1039833026#2 1039833026#3 1039833026#4 1039833026#5 1039833026#6 1039833026#7 1039833026#8 1039833026#9 1039833026#10 1039833026#11 1039833026#12 1039833026#13 1039833026#15 1137278811#0 1137278811#1 1137278811#2 1137278811#3 1137278811#4 1137278811#5 1137278811#6 1137278811#7 1137278811#8 E2 E5 1137278796#0 1137278796#1 1137278796#2 1137278796#3 1137278796#4 1137278796#5"/>
    </vehicle>
    <vehicle id="92" depart="92.00">
        <route edges="1243054436 40604161#3-AddedOnRampEdge 40604161#3 40604161#4 40604161#5 40604161#6 40604161#7 40604161#8 40604161#9 40604161#10 569825112#2-AddedOnRampEdge E24 569825112#14 1137278811#0 1137278811#1 1137278811#2 1137278811#3 1137278811#4 1137278811#5 1137278811#6 1137278811#7 1137278811#8 E2 E6 1039833026#1 1039833026#2 1039833026#3 1039833026#4 1039833026#5 1039833026#6 1039833026#7 1039833026#8 1039833026#9 1039833026#10"/>
    </vehicle>
    <vehicle id="93" depart="93.00">
        <route edges="593945816#7 593945816#8 593945816#9 593945816#10 593945816#11 593945816#12 593945816#17-AddedOnRampEdge 593945816#17 593945816#18 280577026#27-AddedOffRampEdge"/>
    </vehicle>
    <vehicle id="94" depart="94.00">
        <route edges="280577026#0 280577026#2 280577026#3 E17 40589043#3 40589043#4 40589043#5 40589043#6 40589043#7 40589043#8 40589043#9 40589043#10 40589043#11 40589043#12 40589033#9 40589033#10 40589033#11 40589033#12 40589033#13 40589033#14"/>
    </vehicle>
    <vehicle id="95" depart="95.00">
        <route edges="40587791#9 40587791#10 E21 E19 280577026#12 280577026#13 280577026#14 280577026#15 280577026#16 280577026#17 280577026#18 280577026#19 280577026#20 280577026#20-AddedOffRampEdge 280577026#21 E16 280577033#8 280577033#9 280577033#10 280577033#11 280577033#12 280577033#13 280577033#14 280577033#15"/>
    </vehicle>
    <vehicle id="96" depart="96.00">
        <route edges="280577033#1-AddedOnRampEdge E14"/>
    </vehicle>
    <vehicle id="97" depart="97.00">
        <route edges="280577026#19 280577026#20 280577026#20-AddedOffRampEdge 552634244 38120834#8 38120834#9 40589033#9 40589033#10 40589033#11 40589033#12 40589033#13 40589033#14 40589033#15 E18 280577033#25 280577033#26 280577033#27 40604161#2 40604161#3-AddedOnRampEdge 40604161#3 40604161#4 40604161#5"/>
    </vehicle>
    <vehicle id="98" depart="98.00">
        <route edges="40557990#4 -40558374#10 -40558374#9 -40558374#8 -40558374#7 -40558374#6 -40558374#5 -40558374#4 -40558374#3 -40557981#4 -40557981#3"/>
    </vehicle>
    <vehicle id="102" depart="102.00">
        <route edges="40589043#12 40589033#9 40589033#10 40589033#11 40589033#12 40589033#13 40589033#14 40589033#15 552634872 280577026#12 280577026#13 280577026#14 280577026#15 280577026#16"/>
    </vehicle>
    <vehicle id="103" depart="103.00">