<?xml version="1.0" encoding="UTF-8"?>

<!-- generated on 2024-09-25 11:47:16 by Eclipse SUMO sumo Version 1.20.0
-->

<configuration xmlns:xsi="http://www.w3.org/2001/XMLSchema-instance" xsi:noNamespaceSchemaLocation="http://sumo.dlr.de/xsd/sumoConfiguration.xsd">

    <input>
        <net-file value="city1.net.xml"/>
        <route-files value="city1.rou.xml"/>
    </input>

</configuration>
